.model jjmod jj(Rtype=1, Vg=2.8mV, Cap=0.064pF, R0=100ohm, Rn=16ohm, Icrit=0.1mA)
*.model pijjmod jj(Rtype=1, Vg=2.8mV, Cap=0.064pF, R0=100ohm, Rn=16ohm, Icrit=0.1mA, PHI=3.14159)

B0                 1         0   jjmod area=0.49
L0                 1         2   0.434pH fcheck
P1                 2         3   jjmod area=20
B2                 3         0   jjmod area=0.49



**netlis file
*.tran 0.1p 4000p 50p 0p 0.2p 
.tran 0.5p 400p 0p 0.2p
.print phase B0
.print phase P1
.print phase B2
.print devi L0
.end

